<?xml version="1.0" encoding="UTF-8"?>

<!-- generated on 2026-04-28T10:27:32.350304+08:00 by Eclipse SUMO netconvert 1.26.0
<netconvertConfiguration xmlns:xsi="http://www.w3.org/2001/XMLSchema-instance" xsi:noNamespaceSchemaLocation="http://sumo.dlr.de/xsd/netconvertConfiguration.xsd">

    <input>
        <osm-files value="map.osm"/>
    </input>

    <output>
        <output-file value="road.net.xml"/>
    </output>

    <projection>
        <proj.utm value="true"/>
    </projection>

    <tls_building>
        <tls.guess value="true"/>
    </tls_building>

</netconvertConfiguration>
-->

<net version="1.20" junctionCornerDetail="5" limitTurnSpeed="5.50" xmlns:xsi="http://www.w3.org/2001/XMLSchema-instance" xsi:noNamespaceSchemaLocation="http://sumo.dlr.de/xsd/net_file.xsd">

    <location netOffset="-407913.89,-3376983.39" convBoundary="0.00,0.00,9274.28,21966.84" origBoundary="104.038738,30.521855,104.135701,30.724943" projParameter="+proj=utm +zone=48 +ellps=WGS84 +datum=WGS84 +units=m +no_defs"/>

    <type id="highway.cycleway" priority="1" numLanes="1" speed="5.56" allow="bicycle" oneway="0" width="2.00"/>
    <type id="highway.footway" priority="1" numLanes="1" speed="2.78" allow="pedestrian" oneway="1" width="2.00"/>
    <type id="highway.living_street" priority="2" numLanes="1" speed="2.78" disallow="tram rail_urban rail rail_electric rail_fast ship container cable_car subway aircraft wheelchair scooter drone" oneway="0"/>
    <type id="highway.path" priority="1" numLanes="1" speed="5.56" allow="pedestrian bicycle" oneway="0" width="2.00"/>
    <type id="highway.pedestrian" priority="1" numLanes="1" speed="2.78" allow="pedestrian" oneway="1" width="2.00"/>
    <type id="highway.primary" priority="12" numLanes="2" speed="27.78" disallow="tram rail_urban rail rail_electric rail_fast ship container cable_car subway aircraft wheelchair scooter drone" oneway="0"/>
    <type id="highway.primary_link" priority="7" numLanes="1" speed="22.22" disallow="tram rail_urban rail rail_electric rail_fast ship container cable_car subway aircraft wheelchair scooter drone" oneway="0"/>
    <type id="highway.residential" priority="3" numLanes="1" speed="13.89" disallow="tram rail_urban rail rail_electric rail_fast ship container cable_car subway aircraft wheelchair scooter drone" oneway="0"/>
    <type id="highway.secondary" priority="11" numLanes="1" speed="27.78" disallow="tram rail_urban rail rail_electric rail_fast ship container cable_car subway aircraft wheelchair scooter drone" oneway="0"/>
    <type id="highway.service" priority="1" numLanes="1" speed="5.56" allow="pedestrian delivery bicycle" oneway="0"/>
    <type id="highway.steps" priority="1" numLanes="1" speed="1.39" allow="pedestrian" oneway="1" width="2.00"/>
    <type id="highway.tertiary" priority="10" numLanes="1" speed="22.22" disallow="tram rail_urban rail rail_electric rail_fast ship container cable_car subway aircraft wheelchair scooter drone" oneway="0"/>
    <type id="highway.unclassified" priority="4" numLanes="1" speed="13.89" disallow="tram rail_urban rail rail_electric rail_fast ship container cable_car subway aircraft wheelchair scooter drone" oneway="0"/>
    <type id="railway.subway" priority="18" numLanes="1" speed="27.78" allow="subway" oneway="1"/>

    <edge id=":10075279944_0" function="internal">
        <lane id=":10075279944_0_0" index="0" disallow="tram rail_urban rail rail_electric rail_fast ship container cable_car subway aircraft wheelchair scooter drone" speed="27.78" length="5.05" shape="1498.58,15787.84 1498.99,15792.87"/>
        <lane id=":10075279944_0_1" index="1" disallow="tram rail_urban rail rail_electric rail_fast ship container cable_car subway aircraft wheelchair scooter drone" speed="27.78" length="5.05" shape="1495.39,15788.10 1495.80,15793.13"/>
        <lane id=":10075279944_0_2" index="2" disallow="tram rail_urban rail rail_electric rail_fast ship container cable_car subway aircraft wheelchair scooter drone" speed="27.78" length="5.05" shape="1492.20,15788.36 1492.61,15793.39"/>
    </edge>
    <edge id=":10075279946_0" function="internal">
        <lane id=":10075279946_0_0" index="0" disallow="tram rail_urban rail rail_electric rail_fast ship container cable_car subway aircraft wheelchair scooter drone" speed="13.89" length="5.00" shape="1585.53,15796.47 1580.77,15798.01"/>
    </edge>
    <edge id=":10075279946_1" function="internal">
        <lane id=":10075279946_1_0" index="0" disallow="tram rail_urban rail rail_electric rail_fast ship container cable_car subway aircraft wheelchair scooter drone" speed="13.89" length="5.00" shape="1579.79,15794.96 1584.55,15793.43"/>
    </edge>
    <edge id=":10075279947_0" function="internal">
        <lane id=":10075279947_0_0" index="0" disallow="tram rail_urban rail rail_electric rail_fast ship container cable_car subway aircraft wheelchair scooter drone" speed="13.89" length="5.00" shape="1552.70,15703.56 1548.00,15705.26"/>
    </edge>
    <edge id=":10075279947_1" function="internal">
        <lane id=":10075279947_1_0" index="0" disallow="tram rail_urban rail rail_electric rail_fast ship container cable_car subway aircraft wheelchair scooter drone" speed="13.89" length="5.00" shape="1546.91,15702.25 1551.62,15700.55"/>
    </edge>
    <edge id=":11046941189_0" function="internal">
        <lane id=":11046941189_0_0" index="0" allow="pedestrian delivery bicycle" speed="5.56" length="5.00" shape="2306.89,15473.94 2306.81,15478.94"/>
    </edge>
    <edge id=":11046941189_1" function="internal">
        <lane id=":11046941189_1_0" index="0" allow="pedestrian delivery bicycle" speed="3.65" length="1.44" shape="2306.89,15473.94 2306.07,15475.13"/>
    </edge>
    <edge id=":11046941189_4" function="internal">
        <lane id=":11046941189_4_0" index="0" allow="pedestrian delivery bicycle" speed="3.65" length="3.23" shape="2306.07,15475.13 2305.26,15475.52 2304.47,15475.10 2303.69,15473.89"/>
    </edge>
    <edge id=":11046941189_2" function="internal">
        <lane id=":11046941189_2_0" index="0" allow="pedestrian delivery bicycle" speed="5.56" length="5.00" shape="2303.61,15478.89 2303.69,15473.89"/>
    </edge>
    <edge id=":11046941189_3" function="internal">
        <lane id=":11046941189_3_0" index="0" allow="pedestrian delivery bicycle" speed="3.65" length="1.44" shape="2303.61,15478.89 2304.43,15477.71"/>
    </edge>
    <edge id=":11046941189_5" function="internal">
        <lane id=":11046941189_5_0" index="0" allow="pedestrian delivery bicycle" speed="3.65" length="3.23" shape="2304.43,15477.71 2305.24,15477.32 2306.03,15477.73 2306.81,15478.94"/>
    </edge>
    <edge id=":11046941190_0" function="internal">
        <lane id=":11046941190_0_0" index="0" allow="pedestrian delivery bicycle" speed="5.56" length="5.00" shape="2394.95,15475.77 2394.83,15480.77"/>
    </edge>
    <edge id=":11046941190_1" function="internal">
        <lane id=":11046941190_1_0" index="0" allow="pedestrian delivery bicycle" speed="3.65" length="1.44" shape="2394.95,15475.77 2394.12,15476.95"/>
    </edge>
    <edge id=":11046941190_4" function="internal">
        <lane id=":11046941190_4_0" index="0" allow="pedestrian delivery bicycle" speed="3.65" length="3.23" shape="2394.12,15476.95 2393.31,15477.33 2392.52,15476.91 2391.75,15475.69"/>
    </edge>
    <edge id=":11046941190_2" function="internal">
        <lane id=":11046941190_2_0" index="0" allow="pedestrian delivery bicycle" speed="5.56" length="5.00" shape="2391.63,15480.69 2391.75,15475.69"/>
    </edge>
    <edge id=":11046941190_3" function="internal">
        <lane id=":11046941190_3_0" index="0" allow="pedestrian delivery bicycle" speed="3.65" length="1.44" shape="2391.63,15480.69 2392.46,15479.51"/>
    </edge>
    <edge id=":11046941190_5" function="internal">
        <lane id=":11046941190_5_0" index="0" allow="pedestrian delivery bicycle" speed="3.65" length="3.23" shape="2392.46,15479.51 2393.27,15479.13 2394.06,15479.55 2394.83,15480.77"/>
    </edge>
    <edge id=":11046941191_0" function="internal">
        <lane id=":11046941191_0_0" index="0" allow="pedestrian delivery bicycle" speed="5.56" length="5.00" shape="2307.33,15445.27 2307.25,15450.28"/>
    </edge>
    <edge id=":11046941191_1" function="internal">
        <lane id=":11046941191_1_0" index="0" allow="pedestrian delivery bicycle" speed="3.65" length="4.67" shape="2307.33,15445.27 2306.51,15446.46 2305.70,15446.85 2304.91,15446.44 2304.13,15445.23"/>
    </edge>
    <edge id=":11046941191_2" function="internal">
        <lane id=":11046941191_2_0" index="0" allow="pedestrian delivery bicycle" speed="5.56" length="5.00" shape="2304.05,15450.23 2304.13,15445.23"/>
    </edge>
    <edge id=":11046941191_3" function="internal">
        <lane id=":11046941191_3_0" index="0" allow="pedestrian delivery bicycle" speed="3.65" length="4.67" shape="2304.05,15450.23 2304.87,15449.04 2305.68,15448.65 2306.47,15449.06 2307.25,15450.28"/>
    </edge>
    <edge id=":11046941197_0" function="internal">
        <lane id=":11046941197_0_0" index="0" disallow="tram rail_urban rail rail_electric rail_fast ship container cable_car subway aircraft wheelchair scooter drone" speed="3.65" length="4.67" shape="2498.94,15081.15 2500.11,15082.01 2500.47,15082.82 2500.03,15083.61 2498.80,15084.35"/>
    </edge>
    <edge id=":11361292918_0" function="internal">
        <lane id=":11361292918_0_0" index="0" disallow="tram rail_urban rail rail_electric rail_fast ship container cable_car subway aircraft wheelchair scooter drone" speed="27.78" length="0.31" shape="3623.43,16351.02 3623.27,16350.75"/>
    </edge>
    <edge id=":11361292918_1" function="internal">
        <lane id=":11361292918_1_0" index="0" disallow="tram rail_urban rail rail_electric rail_fast ship container cable_car subway aircraft wheelchair scooter drone" speed="27.78" length="0.27" shape="3626.04,16349.14 3626.18,16349.37"/>
    </edge>
    <edge id=":11361292920_0" function="internal">
        <lane id=":11361292920_0_0" index="0" disallow="tram rail_urban rail rail_electric rail_fast ship container cable_car subway aircraft wheelchair scooter drone" speed="27.78" length="0.30" shape="3141.06,16620.06 3141.21,16620.32"/>
        <lane id=":11361292920_0_1" index="1" disallow="tram rail_urban rail rail_electric rail_fast ship container cable_car subway aircraft wheelchair scooter drone" speed="27.78" length="0.30" shape="3138.31,16621.70 3138.46,16621.95"/>
    </edge>
    <edge id=":11484492781_0" function="internal">
        <lane id=":11484492781_0_0" index="0" disallow="tram rail_urban rail rail_electric rail_fast ship container cable_car subway aircraft wheelchair scooter drone" speed="13.89" length="5.00" shape="3059.52,14690.33 3056.86,14686.10"/>
    </edge>
    <edge id=":11484492781_1" function="internal">
        <lane id=":11484492781_1_0" index="0" disallow="tram rail_urban rail rail_electric rail_fast ship container cable_car subway aircraft wheelchair scooter drone" speed="13.89" length="5.00" shape="3059.57,14684.39 3062.23,14688.62"/>
    </edge>
    <edge id=":11514143881_0" function="internal">
        <lane id=":11514143881_0_0" index="0" disallow="tram rail_urban rail rail_electric rail_fast ship container cable_car subway aircraft wheelchair scooter drone" speed="13.89" length="0.31" shape="3310.74,16545.53 3310.58,16545.27"/>
    </edge>
    <edge id=":11514143881_1" function="internal">
        <lane id=":11514143881_1_0" index="0" disallow="tram rail_urban rail rail_electric rail_fast ship container cable_car subway aircraft wheelchair scooter drone" speed="13.89" length="0.29" shape="3313.30,16543.59 3313.46,16543.84"/>
    </edge>
    <edge id=":11514143887_0" function="internal">
        <lane id=":11514143887_0_0" index="0" disallow="tram rail_urban rail rail_electric rail_fast ship container cable_car subway aircraft wheelchair scooter drone" speed="27.78" length="0.30" shape="3143.38,16623.99 3143.53,16624.24"/>
        <lane id=":11514143887_0_1" index="1" disallow="tram rail_urban rail rail_electric rail_fast ship container cable_car subway aircraft wheelchair scooter drone" speed="27.78" length="0.30" shape="3140.63,16625.62 3140.78,16625.88"/>
    </edge>
    <edge id=":11514143888_0" function="internal">
        <lane id=":11514143888_0_0" index="0" disallow="tram rail_urban rail rail_electric rail_fast ship container cable_car subway aircraft wheelchair scooter drone" speed="27.78" length="0.30" shape="3132.22,16631.25 3132.07,16631.00"/>
        <lane id=":11514143888_0_1" index="1" disallow="tram rail_urban rail rail_electric rail_fast ship container cable_car subway aircraft wheelchair scooter drone" speed="27.78" length="0.30" shape="3134.95,16629.58 3134.80,16629.33"/>
    </edge>
    <edge id=":11550812821_0" function="internal">
        <lane id=":11550812821_0_0" index="0" disallow="tram rail_urban rail rail_electric rail_fast ship container cable_car subway aircraft wheelchair scooter drone" speed="27.78" length="0.30" shape="2322.92,16555.60 2322.92,16555.30"/>
        <lane id=":11550812821_0_1" index="1" disallow="tram rail_urban rail rail_electric rail_fast ship container cable_car subway aircraft wheelchair scooter drone" speed="27.78" length="0.30" shape="2326.12,16555.64 2326.12,16555.34"/>
        <lane id=":11550812821_0_2" index="2" disallow="tram rail_urban rail rail_electric rail_fast ship container cable_car subway aircraft wheelchair scooter drone" speed="27.78" length="0.30" shape="2329.32,16555.68 2329.32,16555.38"/>
    </edge>
    <edge id=":11550812822_0" function="internal">
        <lane id=":11550812822_0_0" index="0" disallow="tram rail_urban rail rail_electric rail_fast ship container cable_car subway aircraft wheelchair scooter drone" speed="27.78" length="0.30" shape="2340.94,16555.15 2340.94,16555.45"/>
        <lane id=":11550812822_0_1" index="1" disallow="tram rail_urban rail rail_electric rail_fast ship container cable_car subway aircraft wheelchair scooter drone" speed="27.78" length="0.30" shape="2337.74,16555.10 2337.74,16555.40"/>
        <lane id=":11550812822_0_2" index="2" disallow="tram rail_urban rail rail_electric rail_fast ship container cable_car subway aircraft wheelchair scooter drone" speed="27.78" length="0.30" shape="2334.54,16555.05 2334.54,16555.35"/>
    </edge>
    <edge id=":11550812823_0" function="internal">
        <lane id=":11550812823_0_0" index="0" disallow="tram rail_urban rail rail_electric rail_fast ship container cable_car subway aircraft wheelchair scooter drone" speed="27.78" length="0.30" shape="2341.01,16550.64 2341.01,16550.94"/>
        <lane id=":11550812823_0_1" index="1" disallow="tram rail_urban rail rail_electric rail_fast ship container cable_car subway aircraft wheelchair scooter drone" speed="27.78" length="0.30" shape="2337.81,16550.59 2337.81,16550.89"/>
        <lane id=":11550812823_0_2" index="2" disallow="tram rail_urban rail rail_electric rail_fast ship container cable_car subway aircraft wheelchair scooter drone" speed="27.78" length="0.30" shape="2334.61,16550.54 2334.61,16550.84"/>
    </edge>
    <edge id=":1156119116_0" function="internal">
        <lane id=":1156119116_0_0" index="0" disallow="tram rail_urban rail rail_electric rail_fast ship container cable_car subway aircraft wheelchair scooter drone" speed="17.44" length="12.11" shape="2356.51,15844.22 2355.16,15847.04 2354.55,15849.11 2354.38,15851.30 2354.32,15854.46"/>
        <lane id=":1156119116_0_1" index="1" disallow="tram rail_urban rail rail_electric rail_fast ship container cable_car subway aircraft wheelchair scooter drone" speed="18.59" length="12.11" shape="2353.67,15842.74 2352.13,15845.94 2351.42,15848.30 2351.20,15850.79 2351.12,15854.38"/>
        <lane id=":1156119116_0_2" index="2" disallow="tram rail_urban rail rail_electric rail_fast ship container cable_car subway aircraft wheelchair scooter drone" speed="19.67" length="12.11" shape="2350.84,15841.25 2349.10,15844.85 2348.28,15847.49 2348.01,15850.27 2347.92,15854.30"/>
    </edge>
    <edge id=":1156119116_3" function="internal">
        <lane id=":1156119116_3_0" index="0" disallow="tram rail_urban rail rail_electric rail_fast ship container cable_car subway aircraft wheelchair scooter drone" speed="8.58" length="10.58" shape="2350.84,15841.25 2348.92,15844.55 2347.13,15846.90 2345.45,15848.30 2343.89,15848.75"/>
    </edge>
    <edge id=":1159131046_0" function="internal">
        <lane id=":1159131046_0_0" index="0" disallow="tram rail_urban rail rail_electric rail_fast ship container cable_car subway aircraft wheelchair scooter drone" speed="13.89" length="14.33" shape="2034.32,15974.24 2034.16,15988.56"/>
    </edge>
    <edge id=":1159131046_1" function="internal">
        <lane id=":1159131046_1_0" index="0" disallow="tram rail_urban rail rail_electric rail_fast ship container cable_car subway aircraft wheelchair scooter drone" speed="8.02" length="4.01" shape="2034.32,15974.24 2033.71,15978.06 2033.63,15978.18"/>
    </edge>
    <edge id=":1159131046_2" function="internal">
        <lane id=":1159131046_2_0" index="0" disallow="tram rail_urban rail rail_electric rail_fast ship container cable_car subway aircraft wheelchair scooter drone" speed="3.65" length="1.44" shape="2034.32,15974.24 2033.50,15975.42"/>
    </edge>
    <edge id=":1159131046_9" function="internal">
        <lane id=":1159131046_9_0" index="0" disallow="tram rail_urban rail rail_electric rail_fast ship container cable_car subway aircraft wheelchair scooter drone" speed="8.02" length="10.15" shape="2033.63,15978.18 2032.02,15980.78 2029.25,15982.40 2025.41,15982.91"/>
    </edge>
    <edge id=":1159131046_10" function="internal">
        <lane id=":1159131046_10_0" index="0" disallow="tram rail_urban rail rail_electric rail_fast ship container cable_car subway aircraft wheelchair scooter drone" speed="3.65" length="3.23" shape="2033.50,15975.42 2032.69,15975.81 2031.90,15975.39 2031.12,15974.18"/>
    </edge>
    <edge id=":1159131046_3" function="internal">
        <lane id=":1159131046_3_0" index="0" disallow="tram rail_urban rail rail_electric rail_fast ship container cable_car subway aircraft wheelchair scooter drone" speed="6.53" length="9.03" shape="2025.43,15979.71 2027.89,15979.38 2029.65,15978.35 2030.73,15976.62 2031.12,15974.18"/>
    </edge>
    <edge id=":1159131046_4" function="internal">
        <lane id=":1159131046_4_0" index="0" disallow="tram rail_urban rail rail_electric rail_fast ship container cable_car subway aircraft wheelchair scooter drone" speed="8.00" length="14.17" shape="2025.43,15979.71 2029.27,15980.29 2032.00,15981.96 2033.63,15984.72 2034.16,15988.56"/>
    </edge>
    <edge id=":1159131046_5" function="internal">
        <lane id=":1159131046_5_0" index="0" disallow="tram rail_urban rail rail_electric rail_fast ship container cable_car subway aircraft wheelchair scooter drone" speed="3.65" length="4.67" shape="2025.43,15979.71 2026.63,15980.52 2027.02,15981.32 2026.61,15982.12 2025.41,15982.91"/>
    </edge>
    <edge id=":1159131046_6" function="internal">
        <lane id=":1159131046_6_0" index="0" disallow="tram rail_urban rail rail_electric rail_fast ship container cable_car subway aircraft wheelchair scooter drone" speed="6.51" length="9.01" shape="2030.96,15988.54 2030.62,15986.10 2029.59,15984.34 2027.85,15983.28 2025.41,15982.91"/>
    </edge>
    <edge id=":1159131046_7" function="internal">
        <lane id=":1159131046_7_0" index="0" disallow="tram rail_urban rail rail_electric rail_fast ship container cable_car subway aircraft wheelchair scooter drone" speed="13.89" length="14.36" shape="2030.96,15988.54 2031.12,15974.18"/>
    </edge>
    <edge id=":1159131046_8" function="internal">
        <lane id=":1159131046_8_0" index="0" disallow="tram rail_urban rail rail_electric rail_fast ship container cable_car subway aircraft wheelchair scooter drone" speed="3.65" length="1.44" shape="2030.96,15988.54 2031.77,15987.35"/>
    </edge>
    <edge id=":1159131046_11" function="internal">
        <lane id=":1159131046_11_0" index="0" disallow="tram rail_urban rail rail_electric rail_fast ship container cable_car subway aircraft wheelchair scooter drone" speed="3.65" length="3.23" shape="2031.77,15987.35 2032.57,15986.95 2033.37,15987.36 2034.16,15988.56"/>
    </edge>
    <edge id=":1159131458_0" function="internal">
        <lane id=":1159131458_0_0" index="0" disallow="tram rail_urban rail rail_electric rail_fast ship container cable_car subway aircraft wheelchair scooter drone" speed="27.78" length="6.84" shape="2021.75,16359.48 2014.91,16359.31"/>
    </edge>
    <edge id=":1159131458_1" function="internal">
        <lane id=":1159131458_1_0" index="0" disallow="tram rail_urban rail rail_electric rail_fast ship container cable_car subway aircraft wheelchair scooter drone" speed="6.08" length="7.77" shape="2021.75,16359.48 2018.99,16359.21 2017.04,16358.58 2015.89,16357.57 2015.54,16356.19"/>
    </edge>
    <edge id=":1159131458_2" function="internal">
        <lane id=":1159131458_2_0" index="0" disallow="tram rail_urban rail rail_electric rail_fast ship container cable_car subway aircraft wheelchair scooter drone" speed="5.27" length="5.53" shape="2018.74,16356.29 2018.46,16357.65 2017.73,16358.60 2016.55,16359.15 2014.91,16359.31"/>
    </edge>
    <edge id=":1159131458_3" function="internal">
        <lane id=":1159131458_3_0" index="0" disallow="tram rail_urban rail rail_electric rail_fast ship container cable_car subway aircraft wheelchair scooter drone" speed="3.65" length="4.67" shape="2018.74,16356.29 2017.90,16357.47 2017.09,16357.84 2016.30,16357.42 2015.54,16356.19"/>
    </edge>
    <edge id=":1159131461_0" function="internal">
        <lane id=":1159131461_0_0" index="0" disallow="tram rail_urban rail rail_electric rail_fast ship container cable_car subway aircraft wheelchair scooter drone" speed="13.89" length="0.31" shape="2028.92,16168.17 2028.91,16168.48"/>
    </edge>
    <edge id=":1159131461_1" function="internal">
        <lane id=":1159131461_1_0" index="0" disallow="tram rail_urban rail rail_electric rail_fast ship container cable_car subway aircraft wheelchair scooter drone" speed="13.89" length="0.28" shape="2025.72,16168.36 2025.72,16168.08"/>
    </edge>
    <edge id=":1159131810_0" function="internal">
        <lane id=":1159131810_0_0" index="0" disallow="tram rail_urban rail rail_electric rail_fast ship container cable_car subway aircraft wheelchair scooter drone" speed="3.65" length="4.67" shape="2616.83,16649.19 2616.15,16650.46 2615.39,16650.93 2614.56,16650.61 2613.65,16649.49"/>
    </edge>
    <edge id=":1159131854_0" function="internal">
        <lane id=":1159131854_0_0" index="0" disallow="tram rail_urban rail rail_electric rail_fast ship container cable_car subway aircraft wheelchair scooter drone" speed="6.72" length="9.36" shape="3457.22,16066.94 3455.67,16065.03 3453.81,16064.06 3451.64,16064.03 3449.17,16064.94"/>
    </edge>
    <edge id=":1159131854_1" function="internal">
        <lane id=":1159131854_1_0" index="0" disallow="tram rail_urban rail rail_electric rail_fast ship container cable_car subway aircraft wheelchair scooter drone" speed="27.78" length="14.46" shape="3457.22,16066.94 3449.70,16054.59"/>
    </edge>
    <edge id=":1159131854_2" function="internal">
        <lane id=":1159131854_2_0" index="0" disallow="tram rail_urban rail rail_electric rail_fast ship container cable_car subway aircraft wheelchair scooter drone" speed="3.65" length="1.44" shape="3457.22,16066.94 3457.30,16065.50"/>
    </edge>
    <edge id=":1159131854_9" function="internal">
        <lane id=":1159131854_9_0" index="0" disallow="tram rail_urban rail rail_electric rail_fast ship container cable_car subway aircraft wheelchair scooter drone" speed="3.65" length="3.23" shape="3457.30,16065.50 3457.79,16064.75 3458.68,16064.69 3459.98,16065.31"/>
    </edge>
    <edge id=":1159131854_3" function="internal">
        <lane id=":1159131854_3_0" index="0" disallow="tram rail_urban rail rail_electric rail_fast ship container cable_car subway aircraft wheelchair scooter drone" speed="27.78" length="14.55" shape="3452.41,16052.89 3459.98,16065.31"/>
    </edge>
    <edge id=":1159131854_4" function="internal">
        <lane id=":1159131854_4_0" index="0" disallow="tram rail_urban rail rail_electric rail_fast ship container cable_car subway aircraft wheelchair scooter drone" speed="7.87" length="4.24" shape="3452.41,16052.89 3454.04,16056.56 3454.04,16056.78"/>
    </edge>
    <edge id=":1159131854_5" function="internal">
        <lane id=":1159131854_5_0" index="0" disallow="tram rail_urban rail rail_electric rail_fast ship container cable_car subway aircraft wheelchair scooter drone" speed="3.65" length="1.44" shape="3452.41,16052.89 3452.37,16054.33"/>
    </edge>
    <edge id=":1159131854_10" function="internal">
        <lane id=":1159131854_10_0" index="0" disallow="tram rail_urban rail rail_electric rail_fast ship container cable_car subway aircraft wheelchair scooter drone" speed="7.87" length="10.25" shape="3454.04,16056.78 3454.04,16059.79 3452.42,16062.58 3449.17,16064.94"/>
    </edge>
    <edge id=":1159131854_11" function="internal">
        <lane id=":1159131854_11_0" index="0" disallow="tram rail_urban rail rail_electric rail_fast ship container cable_car subway aircraft wheelchair scooter drone" speed="3.65" length="3.23" shape="3452.37,16054.33 3451.91,16055.09 3451.02,16055.18 3449.70,16054.59"/>
    </edge>
    <edge id=":1159131854_6" function="internal">
        <lane id=":1159131854_6_0" index="0" disallow="tram rail_urban rail rail_electric rail_fast ship container cable_car subway aircraft wheelchair scooter drone" speed="6.35" length="9.04" shape="3447.68,16062.11 3449.71,16060.64 3450.72,16058.89 3450.72,16056.88 3449.70,16054.59"/>
    </edge>
    <edge id=":1159131854_7" function="internal">
        <lane id=":1159131854_7_0" index="0" disallow="tram rail_urban rail rail_electric rail_fast ship container cable_car subway aircraft wheelchair scooter drone" speed="8.18" length="14.34" shape="3447.68,16062.11 3451.43,16060.74 3454.73,16060.82 3457.58,16062.34 3459.98,16065.31"/>
    </edge>
    <edge id=":1159131854_8" function="internal">
        <lane id=":1159131854_8_0" index="0" disallow="tram rail_urban rail rail_electric rail_fast ship container cable_car subway aircraft wheelchair scooter drone" speed="3.65" length="4.67" shape="3447.68,16062.11 3449.12,16062.26 3449.84,16062.78 3449.86,16063.67 3449.17,16064.94"/>
    </edge>
    <edge id=":1159144963_0" function="internal">
        <lane id=":1159144963_0_0" index="0" disallow="tram rail_urban rail rail_electric rail_fast ship container cable_car subway aircraft wheelchair scooter drone" speed="6.56" length="9.09" shape="2816.32,15580.62 2818.80,15580.36 2820.61,15579.37 2821.75,15577.67 2822.22,15575.24"/>
        <lane id=":1159144963_0_1" index="1" disallow="tram rail_urban rail rail_electric rail_fast ship container cable_car subway aircraft wheelchair scooter drone" speed="7.37" length="11.76" shape="2816.32,15580.62 2820.20,15580.41 2823.01,15579.46 2824.75,15577.79 2825.42,15575.39"/>
    </edge>
    <edge id=":1159144963_2" function="internal">
        <lane id=":1159144963_2_0" index="0" disallow="tram rail_urban rail rail_electric rail_fast ship container cable_car subway aircraft wheelchair scooter drone" speed="3.65" length="4.67" shape="2816.32,15580.62 2817.49,15581.46 2817.86,15582.28 2817.44,15583.06 2816.21,15583.82"/>
    </edge>
    <edge id=":1159144963_3" function="internal">
        <lane id=":1159144963_3_0" index="0" disallow="tram rail_urban rail rail_electric rail_fast ship container cable_car subway aircraft wheelchair scooter drone" speed="6.49" length="9.03" shape="2821.59,15589.62 2821.34,15587.15 2820.36,15585.36 2818.65,15584.26 2816.21,15583.82"/>
    </edge>
    <edge id=":1159144963_4" function="internal">
        <lane id=":1159144963_4_0" index="0" disallow="tram rail_urban rail rail_electric rail_fast ship container cable_car subway aircraft wheelchair scooter drone" speed="27.78" length="14.35" shape="2821.59,15589.62 2822.22,15575.24"/>
        <lane id=":1159144963_4_1" index="1" disallow="tram rail_urban rail rail_electric rail_fast ship container cable_car subway aircraft wheelchair scooter drone" speed="27.78" length="14.35" shape="2824.79,15589.75 2825.42,15575.39"/>
        <lane id=":1159144963_4_2" index="2" disallow="tram rail_urban rail rail_electric rail_fast ship container cable_car subway aircraft wheelchair scooter drone" speed="27.78" length="14.35" shape="2827.99,15589.87 2828.62,15575.55"/>
        <lane id=":1159144963_4_3" index="3" disallow="tram rail_urban rail rail_electric rail_fast ship container cable_car subway aircraft wheelchair scooter drone" speed="27.78" length="14.35" shape="2831.18,15590.00 2831.81,15575.70"/>
    </edge>
    <edge id=":1159144966_0" function="internal">
        <lane id=":1159144966_0_0" index="0" disallow="tram rail_urban rail rail_electric rail_fast ship container cable_car subway aircraft wheelchair scooter drone" speed="5.63" length="6.56" shape="2650.42,15578.32 2647.96,15578.37 2646.20,15578.74 2645.13,15579.40 2644.76,15580.37"/>
    </edge>
    <edge id=":1159144966_1" function="internal">
        <lane id=":1159144966_1_0" index="0" disallow="tram rail_urban rail rail_electric rail_fast ship container cable_car subway aircraft wheelchair scooter drone" speed="8.72" length="16.83" shape="2650.42,15578.32 2645.18,15577.60 2641.45,15575.85 2639.24,15573.07 2638.55,15569.26"/>
    </edge>
    <edge id=":1159144966_2" function="internal">
        <lane id=":1159144966_2_0" index="0" disallow="tram rail_urban rail rail_electric rail_fast ship container cable_car subway aircraft wheelchair scooter drone" speed="3.65" length="4.67" shape="2650.42,15578.32 2649.25,15577.48 2648.87,15576.66 2649.30,15575.88 2650.53,15575.12"/>