<configuration>
  <input>
    <net-file value="road.net.xml"/>
    <route-files value="traffic.rou.xml"/>
  </input>
  <time>
    <begin value="0"/>
    <end value="7200"/>
  </time>
</configuration>